[General]
network = Four_Queue
sim-time-limit = 100000s
cmdenv-express-mode=true
record-eventlog = false

Four_Queue.Hx.p0 = 0.25
Four_Queue.Hx.p1 = 0.25
Four_Queue.Hx.p2 = 0.25
Four_Queue.Hx.p3 = 0.25

Four_Queue.H0.serviceTime0 = exponential(0.75s)
Four_Queue.Hx.serviceTime1 = exponential(1s)
Four_Queue.Hx.serviceTime2 = exponential(2s)
Four_Queue.Hx.serviceTime3 = exponential(4s)

[Config l0]
Four_Queue.gen.sendIaTime = exponential(20.0s)

[Config l1]
Four_Queue.gen.sendIaTime = exponential(16.779661016949152s)

[Config l2]
Four_Queue.gen.sendIaTime = exponential(14.452554744525548s)

[Config l3]
Four_Queue.gen.sendIaTime = exponential(12.692307692307692s)

[Config l4]
Four_Queue.gen.sendIaTime = exponential(11.314285714285715s)

[Config l5]
Four_Queue.gen.sendIaTime = exponential(10.20618556701031s)

[Config l6]
Four_Queue.gen.sendIaTime = exponential(9.295774647887324s)

[Config l7]
Four_Queue.gen.sendIaTime = exponential(8.53448275862069s)

[Config l8]
Four_Queue.gen.sendIaTime = exponential(7.888446215139443s)

[Config l9]
Four_Queue.gen.sendIaTime = exponential(7.333333333333334s)

[Config l10]
Four_Queue.gen.sendIaTime = exponential(6.85121107266436s)

[Config l11]
Four_Queue.gen.sendIaTime = exponential(6.428571428571429s)

[Config l12]
Four_Queue.gen.sendIaTime = exponential(6.055045871559633s)

[Config l13]
Four_Queue.gen.sendIaTime = exponential(5.722543352601155s)

[Config l14]
Four_Queue.gen.sendIaTime = exponential(5.424657534246577s)

[Config l15]
Four_Queue.gen.sendIaTime = exponential(5.156250000000001s)

[Config l16]
Four_Queue.gen.sendIaTime = exponential(4.913151364764269s)

[Config l17]
Four_Queue.gen.sendIaTime = exponential(4.691943127962086s)

[Config l18]
Four_Queue.gen.sendIaTime = exponential(4.4897959183673475s)

[Config l19]
Four_Queue.gen.sendIaTime = exponential(4.304347826086957s)

[Config l20]
Four_Queue.gen.sendIaTime = exponential(4.133611691022964s)

[Config l21]
Four_Queue.gen.sendIaTime = exponential(3.975903614457831s)

[Config l22]
Four_Queue.gen.sendIaTime = exponential(3.829787234042554s)

[Config l23]
Four_Queue.gen.sendIaTime = exponential(3.694029850746269s)

[Config l24]
Four_Queue.gen.sendIaTime = exponential(3.567567567567568s)

[Config l25]
Four_Queue.gen.sendIaTime = exponential(3.4494773519163764s)

[Config l26]
Four_Queue.gen.sendIaTime = exponential(3.338954468802698s)

[Config l27]
Four_Queue.gen.sendIaTime = exponential(3.235294117647059s)

[Config l28]
Four_Queue.gen.sendIaTime = exponential(3.1378763866877977s)

[Config l29]
Four_Queue.gen.sendIaTime = exponential(3.0461538461538464s)

[Config l30]
Four_Queue.gen.sendIaTime = exponential(2.9596412556053817s)

[Config l31]
Four_Queue.gen.sendIaTime = exponential(2.8779069767441863s)

[Config l32]
Four_Queue.gen.sendIaTime = exponential(2.800565770862801s)

[Config l33]
Four_Queue.gen.sendIaTime = exponential(2.7272727272727275s)

[Config l34]
Four_Queue.gen.sendIaTime = exponential(2.6577181208053693s)

[Config l35]
Four_Queue.gen.sendIaTime = exponential(2.5916230366492146s)

[Config l36]
Four_Queue.gen.sendIaTime = exponential(2.528735632183908s)

[Config l37]
Four_Queue.gen.sendIaTime = exponential(2.468827930174564s)

[Config l38]
Four_Queue.gen.sendIaTime = exponential(2.41169305724726s)

[Config l39]
Four_Queue.gen.sendIaTime = exponential(2.357142857142857s)

[Config l40]
Four_Queue.gen.sendIaTime = exponential(2.3050058207217696s)

[Config l41]
Four_Queue.gen.sendIaTime = exponential(2.255125284738041s)

[Config l42]
Four_Queue.gen.sendIaTime = exponential(2.207357859531773s)

[Config l43]
Four_Queue.gen.sendIaTime = exponential(2.161572052401747s)

[Config l44]
Four_Queue.gen.sendIaTime = exponential(2.11764705882353s)

[Config l45]
Four_Queue.gen.sendIaTime = exponential(2.075471698113208s)

[Config l46]
Four_Queue.gen.sendIaTime = exponential(2.034943473792395s)

[Config l47]
Four_Queue.gen.sendIaTime = exponential(1.9959677419354838s)

[Config l48]
Four_Queue.gen.sendIaTime = exponential(1.9584569732937684s)

[Config l49]
Four_Queue.gen.sendIaTime = exponential(1.9223300970873787s)

[Config l50]
Four_Queue.gen.sendIaTime = exponential(1.8875119161105813s)

[Config l51]
Four_Queue.gen.sendIaTime = exponential(1.8539325842696628s)

[Config l52]
Four_Queue.gen.sendIaTime = exponential(1.8215271389144434s)

[Config l53]
Four_Queue.gen.sendIaTime = exponential(1.7902350813743217s)

[Config l54]
Four_Queue.gen.sendIaTime = exponential(1.7599999999999998s)

[Config l55]
Four_Queue.gen.sendIaTime = exponential(1.7307692307692306s)

[Config l56]
Four_Queue.gen.sendIaTime = exponential(1.7024935511607913s)

[Config l57]
Four_Queue.gen.sendIaTime = exponential(1.6751269035532996s)

[Config l58]
Four_Queue.gen.sendIaTime = exponential(1.6486261448792674s)

[Config l59]
Four_Queue.gen.sendIaTime = exponential(1.6229508196721312s)

[Config l60]
Four_Queue.gen.sendIaTime = exponential(1.5980629539951574s)

[Config l61]
Four_Queue.gen.sendIaTime = exponential(1.573926868044515s)

[Config l62]
Four_Queue.gen.sendIaTime = exponential(1.5505090054815975s)

[Config l63]
Four_Queue.gen.sendIaTime = exponential(1.5277777777777777s)

[Config l64]
Four_Queue.gen.sendIaTime = exponential(1.505703422053232s)

[Config l65]
Four_Queue.gen.sendIaTime = exponential(1.4842578710644678s)

[Config l66]
Four_Queue.gen.sendIaTime = exponential(1.4634146341463414s)

[Config l67]
Four_Queue.gen.sendIaTime = exponential(1.443148688046647s)

[Config l68]
Four_Queue.gen.sendIaTime = exponential(1.4234363767074047s)

[Config l69]
Four_Queue.gen.sendIaTime = exponential(1.4042553191489362s)

[Config l70]
Four_Queue.gen.sendIaTime = exponential(1.3855843247025892s)

[Config l71]
Four_Queue.gen.sendIaTime = exponential(1.367403314917127s)

[Config l72]
Four_Queue.gen.sendIaTime = exponential(1.3496932515337423s)

[Config l73]
Four_Queue.gen.sendIaTime = exponential(1.3324360699865412s)

[Config l74]
Four_Queue.gen.sendIaTime = exponential(1.3156146179401995s)

[Config l75]
Four_Queue.gen.sendIaTime = exponential(1.299212598425197s)

[Config l76]
Four_Queue.gen.sendIaTime = exponential(1.2832145171743357s)

[Config l77]
Four_Queue.gen.sendIaTime = exponential(1.267605633802817s)

[Config l78]
Four_Queue.gen.sendIaTime = exponential(1.252371916508539s)

[Config l79]
Four_Queue.gen.sendIaTime = exponential(1.2375s)

[Config l80]
Four_Queue.gen.sendIaTime = exponential(1.2229771463866586s)

[Config l81]
Four_Queue.gen.sendIaTime = exponential(1.2087912087912087s)

[Config l82]
Four_Queue.gen.sendIaTime = exponential(1.1949305974652986s)

[Config l83]
Four_Queue.gen.sendIaTime = exponential(1.1813842482100239s)

[Config l84]
Four_Queue.gen.sendIaTime = exponential(1.168141592920354s)

[Config l85]
Four_Queue.gen.sendIaTime = exponential(1.1551925320886813s)

[Config l86]
Four_Queue.gen.sendIaTime = exponential(1.1425274091171378s)

[Config l87]
Four_Queue.gen.sendIaTime = exponential(1.1301369863013697s)

[Config l88]
Four_Queue.gen.sendIaTime = exponential(1.1180124223602486s)

[Config l89]
Four_Queue.gen.sendIaTime = exponential(1.106145251396648s)

[Config l90]
Four_Queue.gen.sendIaTime = exponential(1.0945273631840797s)

[Config l91]
Four_Queue.gen.sendIaTime = exponential(1.0831509846827134s)

[Config l92]
Four_Queue.gen.sendIaTime = exponential(1.0720086626962642s)

[Config l93]
Four_Queue.gen.sendIaTime = exponential(1.0610932475884245s)

[Config l94]
Four_Queue.gen.sendIaTime = exponential(1.050397877984085s)

[Config l95]
Four_Queue.gen.sendIaTime = exponential(1.0399159663865547s)

[Config l96]
Four_Queue.gen.sendIaTime = exponential(1.029641185647426s)

[Config l97]
Four_Queue.gen.sendIaTime = exponential(1.01956745623069s)

[Config l98]
Four_Queue.gen.sendIaTime = exponential(1.0096889342172362s)

[Config l99]
Four_Queue.gen.sendIaTime = exponential(1.0s)

