[General]
network = RM_Scheduler
sim-time-limit = 100000s
#cmdenv-express-mode=true
record-eventlog = false

RM_Scheduler.pGen[0].period = 4s
RM_Scheduler.pGen[0].execTime = 1s

RM_Scheduler.pGen[1].period = 10s
RM_Scheduler.pGen[1].execTime = 2s

RM_Scheduler.pGen[0].priority = 0
RM_Scheduler.pGen[1].priority = 1
RM_Scheduler.aGen.priority = 2

[Config big_mode0_ia0_exec10]
RM_Scheduler.scheduler.mode = 0 # 0 for background, 1 for polling, 2 for deferrable, 3 for sporadic
RM_Scheduler.scheduler.background = true
RM_Scheduler.scheduler.budget = 1s
RM_Scheduler.aGen.sendIaTime = exponential(40.0s)
RM_Scheduler.aGen.execTime = exponential(10s)

[Config big_mode0_ia1_exec10]
RM_Scheduler.scheduler.mode = 0 # 0 for background, 1 for polling, 2 for deferrable, 3 for sporadic
RM_Scheduler.scheduler.background = true
RM_Scheduler.scheduler.budget = 1s
RM_Scheduler.aGen.sendIaTime = exponential(59.591835021972656s)
RM_Scheduler.aGen.execTime = exponential(10s)

[Config big_mode0_ia2_exec10]
RM_Scheduler.scheduler.mode = 0 # 0 for background, 1 for polling, 2 for deferrable, 3 for sporadic
RM_Scheduler.scheduler.background = true
RM_Scheduler.scheduler.budget = 1s
RM_Scheduler.aGen.sendIaTime = exponential(79.18367004394531s)
RM_Scheduler.aGen.execTime = exponential(10s)

[Config big_mode0_ia3_exec10]
RM_Scheduler.scheduler.mode = 0 # 0 for background, 1 for polling, 2 for deferrable, 3 for sporadic
RM_Scheduler.scheduler.background = true
RM_Scheduler.scheduler.budget = 1s
RM_Scheduler.aGen.sendIaTime = exponential(98.7755126953125s)
RM_Scheduler.aGen.execTime = exponential(10s)

[Config big_mode0_ia4_exec10]
RM_Scheduler.scheduler.mode = 0 # 0 for background, 1 for polling, 2 for deferrable, 3 for sporadic
RM_Scheduler.scheduler.background = true
RM_Scheduler.scheduler.budget = 1s
RM_Scheduler.aGen.sendIaTime = exponential(118.36734771728516s)
RM_Scheduler.aGen.execTime = exponential(10s)

[Config big_mode0_ia5_exec10]
RM_Scheduler.scheduler.mode = 0 # 0 for background, 1 for polling, 2 for deferrable, 3 for sporadic
RM_Scheduler.scheduler.background = true
RM_Scheduler.scheduler.budget = 1s
RM_Scheduler.aGen.sendIaTime = exponential(137.9591827392578s)
RM_Scheduler.aGen.execTime = exponential(10s)

[Config big_mode0_ia6_exec10]
RM_Scheduler.scheduler.mode = 0 # 0 for background, 1 for polling, 2 for deferrable, 3 for sporadic
RM_Scheduler.scheduler.background = true
RM_Scheduler.scheduler.budget = 1s
RM_Scheduler.aGen.sendIaTime = exponential(157.551025390625s)
RM_Scheduler.aGen.execTime = exponential(10s)

[Config big_mode0_ia7_exec10]
RM_Scheduler.scheduler.mode = 0 # 0 for background, 1 for polling, 2 for deferrable, 3 for sporadic
RM_Scheduler.scheduler.background = true
RM_Scheduler.scheduler.budget = 1s
RM_Scheduler.aGen.sendIaTime = exponential(177.14285278320312s)
RM_Scheduler.aGen.execTime = exponential(10s)

[Config big_mode0_ia8_exec10]
RM_Scheduler.scheduler.mode = 0 # 0 for background, 1 for polling, 2 for deferrable, 3 for sporadic
RM_Scheduler.scheduler.background = true
RM_Scheduler.scheduler.budget = 1s
RM_Scheduler.aGen.sendIaTime = exponential(196.7346954345703s)
RM_Scheduler.aGen.execTime = exponential(10s)

[Config big_mode0_ia9_exec10]
RM_Scheduler.scheduler.mode = 0 # 0 for background, 1 for polling, 2 for deferrable, 3 for sporadic
RM_Scheduler.scheduler.background = true
RM_Scheduler.scheduler.budget = 1s
RM_Scheduler.aGen.sendIaTime = exponential(216.3265380859375s)
RM_Scheduler.aGen.execTime = exponential(10s)

[Config big_mode0_ia10_exec10]
RM_Scheduler.scheduler.mode = 0 # 0 for background, 1 for polling, 2 for deferrable, 3 for sporadic
RM_Scheduler.scheduler.background = true
RM_Scheduler.scheduler.budget = 1s
RM_Scheduler.aGen.sendIaTime = exponential(235.91836547851562s)
RM_Scheduler.aGen.execTime = exponential(10s)

[Config big_mode0_ia11_exec10]
RM_Scheduler.scheduler.mode = 0 # 0 for background, 1 for polling, 2 for deferrable, 3 for sporadic
RM_Scheduler.scheduler.background = true
RM_Scheduler.scheduler.budget = 1s
RM_Scheduler.aGen.sendIaTime = exponential(255.5102081298828s)
RM_Scheduler.aGen.execTime = exponential(10s)

[Config big_mode0_ia12_exec10]
RM_Scheduler.scheduler.mode = 0 # 0 for background, 1 for polling, 2 for deferrable, 3 for sporadic
RM_Scheduler.scheduler.background = true
RM_Scheduler.scheduler.budget = 1s
RM_Scheduler.aGen.sendIaTime = exponential(275.10205078125s)
RM_Scheduler.aGen.execTime = exponential(10s)

[Config big_mode0_ia13_exec10]
RM_Scheduler.scheduler.mode = 0 # 0 for background, 1 for polling, 2 for deferrable, 3 for sporadic
RM_Scheduler.scheduler.background = true
RM_Scheduler.scheduler.budget = 1s
RM_Scheduler.aGen.sendIaTime = exponential(294.6938781738281s)
RM_Scheduler.aGen.execTime = exponential(10s)

[Config big_mode0_ia14_exec10]
RM_Scheduler.scheduler.mode = 0 # 0 for background, 1 for polling, 2 for deferrable, 3 for sporadic
RM_Scheduler.scheduler.background = true
RM_Scheduler.scheduler.budget = 1s
RM_Scheduler.aGen.sendIaTime = exponential(314.28570556640625s)
RM_Scheduler.aGen.execTime = exponential(10s)

[Config big_mode0_ia15_exec10]
RM_Scheduler.scheduler.mode = 0 # 0 for background, 1 for polling, 2 for deferrable, 3 for sporadic
RM_Scheduler.scheduler.background = true
RM_Scheduler.scheduler.budget = 1s
RM_Scheduler.aGen.sendIaTime = exponential(333.8775634765625s)
RM_Scheduler.aGen.execTime = exponential(10s)

[Config big_mode0_ia16_exec10]
RM_Scheduler.scheduler.mode = 0 # 0 for background, 1 for polling, 2 for deferrable, 3 for sporadic
RM_Scheduler.scheduler.background = true
RM_Scheduler.scheduler.budget = 1s
RM_Scheduler.aGen.sendIaTime = exponential(353.4693908691406s)
RM_Scheduler.aGen.execTime = exponential(10s)

[Config big_mode0_ia17_exec10]
RM_Scheduler.scheduler.mode = 0 # 0 for background, 1 for polling, 2 for deferrable, 3 for sporadic
RM_Scheduler.scheduler.background = true
RM_Scheduler.scheduler.budget = 1s
RM_Scheduler.aGen.sendIaTime = exponential(373.06121826171875s)
RM_Scheduler.aGen.execTime = exponential(10s)

[Config big_mode0_ia18_exec10]
RM_Scheduler.scheduler.mode = 0 # 0 for background, 1 for polling, 2 for deferrable, 3 for sporadic
RM_Scheduler.scheduler.background = true
RM_Scheduler.scheduler.budget = 1s
RM_Scheduler.aGen.sendIaTime = exponential(392.653076171875s)
RM_Scheduler.aGen.execTime = exponential(10s)

[Config big_mode0_ia19_exec10]
RM_Scheduler.scheduler.mode = 0 # 0 for background, 1 for polling, 2 for deferrable, 3 for sporadic
RM_Scheduler.scheduler.background = true
RM_Scheduler.scheduler.budget = 1s
RM_Scheduler.aGen.sendIaTime = exponential(412.2449035644531s)
RM_Scheduler.aGen.execTime = exponential(10s)

[Config big_mode0_ia20_exec10]
RM_Scheduler.scheduler.mode = 0 # 0 for background, 1 for polling, 2 for deferrable, 3 for sporadic
RM_Scheduler.scheduler.background = true
RM_Scheduler.scheduler.budget = 1s
RM_Scheduler.aGen.sendIaTime = exponential(431.83673095703125s)
RM_Scheduler.aGen.execTime = exponential(10s)

[Config big_mode0_ia21_exec10]
RM_Scheduler.scheduler.mode = 0 # 0 for background, 1 for polling, 2 for deferrable, 3 for sporadic
RM_Scheduler.scheduler.background = true
RM_Scheduler.scheduler.budget = 1s
RM_Scheduler.aGen.sendIaTime = exponential(451.4285583496094s)
RM_Scheduler.aGen.execTime = exponential(10s)

[Config big_mode0_ia22_exec10]
RM_Scheduler.scheduler.mode = 0 # 0 for background, 1 for polling, 2 for deferrable, 3 for sporadic
RM_Scheduler.scheduler.background = true
RM_Scheduler.scheduler.budget = 1s
RM_Scheduler.aGen.sendIaTime = exponential(471.0204162597656s)
RM_Scheduler.aGen.execTime = exponential(10s)

[Config big_mode0_ia23_exec10]
RM_Scheduler.scheduler.mode = 0 # 0 for background, 1 for polling, 2 for deferrable, 3 for sporadic
RM_Scheduler.scheduler.background = true
RM_Scheduler.scheduler.budget = 1s
RM_Scheduler.aGen.sendIaTime = exponential(490.61224365234375s)
RM_Scheduler.aGen.execTime = exponential(10s)

[Config big_mode0_ia24_exec10]
RM_Scheduler.scheduler.mode = 0 # 0 for background, 1 for polling, 2 for deferrable, 3 for sporadic
RM_Scheduler.scheduler.background = true
RM_Scheduler.scheduler.budget = 1s
RM_Scheduler.aGen.sendIaTime = exponential(510.2040710449219s)
RM_Scheduler.aGen.execTime = exponential(10s)

[Config big_mode0_ia25_exec10]
RM_Scheduler.scheduler.mode = 0 # 0 for background, 1 for polling, 2 for deferrable, 3 for sporadic
RM_Scheduler.scheduler.background = true
RM_Scheduler.scheduler.budget = 1s
RM_Scheduler.aGen.sendIaTime = exponential(529.7958984375s)
RM_Scheduler.aGen.execTime = exponential(10s)

[Config big_mode0_ia26_exec10]
RM_Scheduler.scheduler.mode = 0 # 0 for background, 1 for polling, 2 for deferrable, 3 for sporadic
RM_Scheduler.scheduler.background = true
RM_Scheduler.scheduler.budget = 1s
RM_Scheduler.aGen.sendIaTime = exponential(549.3877563476562s)
RM_Scheduler.aGen.execTime = exponential(10s)

[Config big_mode0_ia27_exec10]
RM_Scheduler.scheduler.mode = 0 # 0 for background, 1 for polling, 2 for deferrable, 3 for sporadic
RM_Scheduler.scheduler.background = true
RM_Scheduler.scheduler.budget = 1s
RM_Scheduler.aGen.sendIaTime = exponential(568.9796142578125s)
RM_Scheduler.aGen.execTime = exponential(10s)

[Config big_mode0_ia28_exec10]
RM_Scheduler.scheduler.mode = 0 # 0 for background, 1 for polling, 2 for deferrable, 3 for sporadic
RM_Scheduler.scheduler.background = true
RM_Scheduler.scheduler.budget = 1s
RM_Scheduler.aGen.sendIaTime = exponential(588.5714111328125s)
RM_Scheduler.aGen.execTime = exponential(10s)

[Config big_mode0_ia29_exec10]
RM_Scheduler.scheduler.mode = 0 # 0 for background, 1 for polling, 2 for deferrable, 3 for sporadic
RM_Scheduler.scheduler.background = true
RM_Scheduler.scheduler.budget = 1s
RM_Scheduler.aGen.sendIaTime = exponential(608.1632690429688s)
RM_Scheduler.aGen.execTime = exponential(10s)

[Config big_mode0_ia30_exec10]
RM_Scheduler.scheduler.mode = 0 # 0 for background, 1 for polling, 2 for deferrable, 3 for sporadic
RM_Scheduler.scheduler.background = true
RM_Scheduler.scheduler.budget = 1s
RM_Scheduler.aGen.sendIaTime = exponential(627.755126953125s)
RM_Scheduler.aGen.execTime = exponential(10s)

[Config big_mode0_ia31_exec10]
RM_Scheduler.scheduler.mode = 0 # 0 for background, 1 for polling, 2 for deferrable, 3 for sporadic
RM_Scheduler.scheduler.background = true
RM_Scheduler.scheduler.budget = 1s
RM_Scheduler.aGen.sendIaTime = exponential(647.346923828125s)
RM_Scheduler.aGen.execTime = exponential(10s)

[Config big_mode0_ia32_exec10]
RM_Scheduler.scheduler.mode = 0 # 0 for background, 1 for polling, 2 for deferrable, 3 for sporadic
RM_Scheduler.scheduler.background = true
RM_Scheduler.scheduler.budget = 1s
RM_Scheduler.aGen.sendIaTime = exponential(666.9387817382812s)
RM_Scheduler.aGen.execTime = exponential(10s)

[Config big_mode0_ia33_exec10]
RM_Scheduler.scheduler.mode = 0 # 0 for background, 1 for polling, 2 for deferrable, 3 for sporadic
RM_Scheduler.scheduler.background = true
RM_Scheduler.scheduler.budget = 1s
RM_Scheduler.aGen.sendIaTime = exponential(686.5306396484375s)
RM_Scheduler.aGen.execTime = exponential(10s)

[Config big_mode0_ia34_exec10]
RM_Scheduler.scheduler.mode = 0 # 0 for background, 1 for polling, 2 for deferrable, 3 for sporadic
RM_Scheduler.scheduler.background = true
RM_Scheduler.scheduler.budget = 1s
RM_Scheduler.aGen.sendIaTime = exponential(706.1224365234375s)
RM_Scheduler.aGen.execTime = exponential(10s)

[Config big_mode0_ia35_exec10]
RM_Scheduler.scheduler.mode = 0 # 0 for background, 1 for polling, 2 for deferrable, 3 for sporadic
RM_Scheduler.scheduler.background = true
RM_Scheduler.scheduler.budget = 1s
RM_Scheduler.aGen.sendIaTime = exponential(725.7142944335938s)
RM_Scheduler.aGen.execTime = exponential(10s)

[Config big_mode0_ia36_exec10]
RM_Scheduler.scheduler.mode = 0 # 0 for background, 1 for polling, 2 for deferrable, 3 for sporadic
RM_Scheduler.scheduler.background = true
RM_Scheduler.scheduler.budget = 1s
RM_Scheduler.aGen.sendIaTime = exponential(745.30615234375s)
RM_Scheduler.aGen.execTime = exponential(10s)

[Config big_mode0_ia37_exec10]
RM_Scheduler.scheduler.mode = 0 # 0 for background, 1 for polling, 2 for deferrable, 3 for sporadic
RM_Scheduler.scheduler.background = true
RM_Scheduler.scheduler.budget = 1s
RM_Scheduler.aGen.sendIaTime = exponential(764.89794921875s)
RM_Scheduler.aGen.execTime = exponential(10s)

[Config big_mode0_ia38_exec10]
RM_Scheduler.scheduler.mode = 0 # 0 for background, 1 for polling, 2 for deferrable, 3 for sporadic
RM_Scheduler.scheduler.background = true
RM_Scheduler.scheduler.budget = 1s
RM_Scheduler.aGen.sendIaTime = exponential(784.4898071289062s)
RM_Scheduler.aGen.execTime = exponential(10s)

[Config big_mode0_ia39_exec10]
RM_Scheduler.scheduler.mode = 0 # 0 for background, 1 for polling, 2 for deferrable, 3 for sporadic
RM_Scheduler.scheduler.background = true
RM_Scheduler.scheduler.budget = 1s
RM_Scheduler.aGen.sendIaTime = exponential(804.0816040039062s)
RM_Scheduler.aGen.execTime = exponential(10s)

[Config big_mode0_ia40_exec10]
RM_Scheduler.scheduler.mode = 0 # 0 for background, 1 for polling, 2 for deferrable, 3 for sporadic
RM_Scheduler.scheduler.background = true
RM_Scheduler.scheduler.budget = 1s
RM_Scheduler.aGen.sendIaTime = exponential(823.6734619140625s)
RM_Scheduler.aGen.execTime = exponential(10s)

[Config big_mode0_ia41_exec10]
RM_Scheduler.scheduler.mode = 0 # 0 for background, 1 for polling, 2 for deferrable, 3 for sporadic
RM_Scheduler.scheduler.background = true
RM_Scheduler.scheduler.budget = 1s
RM_Scheduler.aGen.sendIaTime = exponential(843.2653198242188s)
RM_Scheduler.aGen.execTime = exponential(10s)

[Config big_mode0_ia42_exec10]
RM_Scheduler.scheduler.mode = 0 # 0 for background, 1 for polling, 2 for deferrable, 3 for sporadic
RM_Scheduler.scheduler.background = true
RM_Scheduler.scheduler.budget = 1s
RM_Scheduler.aGen.sendIaTime = exponential(862.8571166992188s)
RM_Scheduler.aGen.execTime = exponential(10s)

[Config big_mode0_ia43_exec10]
RM_Scheduler.scheduler.mode = 0 # 0 for background, 1 for polling, 2 for deferrable, 3 for sporadic
RM_Scheduler.scheduler.background = true
RM_Scheduler.scheduler.budget = 1s
RM_Scheduler.aGen.sendIaTime = exponential(882.448974609375s)
RM_Scheduler.aGen.execTime = exponential(10s)

[Config big_mode0_ia44_exec10]
RM_Scheduler.scheduler.mode = 0 # 0 for background, 1 for polling, 2 for deferrable, 3 for sporadic
RM_Scheduler.scheduler.background = true
RM_Scheduler.scheduler.budget = 1s
RM_Scheduler.aGen.sendIaTime = exponential(902.0408325195312s)
RM_Scheduler.aGen.execTime = exponential(10s)

[Config big_mode0_ia45_exec10]
RM_Scheduler.scheduler.mode = 0 # 0 for background, 1 for polling, 2 for deferrable, 3 for sporadic
RM_Scheduler.scheduler.background = true
RM_Scheduler.scheduler.budget = 1s
RM_Scheduler.aGen.sendIaTime = exponential(921.6326293945312s)
RM_Scheduler.aGen.execTime = exponential(10s)

[Config big_mode0_ia46_exec10]
RM_Scheduler.scheduler.mode = 0 # 0 for background, 1 for polling, 2 for deferrable, 3 for sporadic
RM_Scheduler.scheduler.background = true
RM_Scheduler.scheduler.budget = 1s
RM_Scheduler.aGen.sendIaTime = exponential(941.2244873046875s)
RM_Scheduler.aGen.execTime = exponential(10s)

[Config big_mode0_ia47_exec10]
RM_Scheduler.scheduler.mode = 0 # 0 for background, 1 for polling, 2 for deferrable, 3 for sporadic
RM_Scheduler.scheduler.background = true
RM_Scheduler.scheduler.budget = 1s
RM_Scheduler.aGen.sendIaTime = exponential(960.8163452148438s)
RM_Scheduler.aGen.execTime = exponential(10s)

[Config big_mode0_ia48_exec10]
RM_Scheduler.scheduler.mode = 0 # 0 for background, 1 for polling, 2 for deferrable, 3 for sporadic
RM_Scheduler.scheduler.background = true
RM_Scheduler.scheduler.budget = 1s
RM_Scheduler.aGen.sendIaTime = exponential(980.4081420898438s)
RM_Scheduler.aGen.execTime = exponential(10s)

[Config big_mode0_ia49_exec10]
RM_Scheduler.scheduler.mode = 0 # 0 for background, 1 for polling, 2 for deferrable, 3 for sporadic
RM_Scheduler.scheduler.background = true
RM_Scheduler.scheduler.budget = 1s
RM_Scheduler.aGen.sendIaTime = exponential(1000.0s)
RM_Scheduler.aGen.execTime = exponential(10s)

[Config big_mode1_ia0_exec10]
RM_Scheduler.scheduler.mode = 1 # 0 for background, 1 for polling, 2 for deferrable, 3 for sporadic
RM_Scheduler.scheduler.background = true
RM_Scheduler.scheduler.budget = 1s
RM_Scheduler.aGen.sendIaTime = exponential(40.0s)
RM_Scheduler.aGen.execTime = exponential(10s)

[Config big_mode1_ia1_exec10]
RM_Scheduler.scheduler.mode = 1 # 0 for background, 1 for polling, 2 for deferrable, 3 for sporadic
RM_Scheduler.scheduler.background = true
RM_Scheduler.scheduler.budget = 1s
RM_Scheduler.aGen.sendIaTime = exponential(59.591835021972656s)
RM_Scheduler.aGen.execTime = exponential(10s)

[Config big_mode1_ia2_exec10]
RM_Scheduler.scheduler.mode = 1 # 0 for background, 1 for polling, 2 for deferrable, 3 for sporadic
RM_Scheduler.scheduler.background = true
RM_Scheduler.scheduler.budget = 1s
RM_Scheduler.aGen.sendIaTime = exponential(79.18367004394531s)
RM_Scheduler.aGen.execTime = exponential(10s)

[Config big_mode1_ia3_exec10]
RM_Scheduler.scheduler.mode = 1 # 0 for background, 1 for polling, 2 for deferrable, 3 for sporadic
RM_Scheduler.scheduler.background = true
RM_Scheduler.scheduler.budget = 1s
RM_Scheduler.aGen.sendIaTime = exponential(98.7755126953125s)
RM_Scheduler.aGen.execTime = exponential(10s)

[Config big_mode1_ia4_exec10]
RM_Scheduler.scheduler.mode = 1 # 0 for background, 1 for polling, 2 for deferrable, 3 for sporadic
RM_Scheduler.scheduler.background = true
RM_Scheduler.scheduler.budget = 1s
RM_Scheduler.aGen.sendIaTime = exponential(118.36734771728516s)
RM_Scheduler.aGen.execTime = exponential(10s)

[Config big_mode1_ia5_exec10]
RM_Scheduler.scheduler.mode = 1 # 0 for background, 1 for polling, 2 for deferrable, 3 for sporadic
RM_Scheduler.scheduler.background = true
RM_Scheduler.scheduler.budget = 1s
RM_Scheduler.aGen.sendIaTime = exponential(137.9591827392578s)
RM_Scheduler.aGen.execTime = exponential(10s)

[Config big_mode1_ia6_exec10]
RM_Scheduler.scheduler.mode = 1 # 0 for background, 1 for polling, 2 for deferrable, 3 for sporadic
RM_Scheduler.scheduler.background = true
RM_Scheduler.scheduler.budget = 1s
RM_Scheduler.aGen.sendIaTime = exponential(157.551025390625s)
RM_Scheduler.aGen.execTime = exponential(10s)

[Config big_mode1_ia7_exec10]
RM_Scheduler.scheduler.mode = 1 # 0 for background, 1 for polling, 2 for deferrable, 3 for sporadic
RM_Scheduler.scheduler.background = true
RM_Scheduler.scheduler.budget = 1s
RM_Scheduler.aGen.sendIaTime = exponential(177.14285278320312s)
RM_Scheduler.aGen.execTime = exponential(10s)

[Config big_mode1_ia8_exec10]
RM_Scheduler.scheduler.mode = 1 # 0 for background, 1 for polling, 2 for deferrable, 3 for sporadic
RM_Scheduler.scheduler.background = true
RM_Scheduler.scheduler.budget = 1s
RM_Scheduler.aGen.sendIaTime = exponential(196.7346954345703s)
RM_Scheduler.aGen.execTime = exponential(10s)

[Config big_mode1_ia9_exec10]
RM_Scheduler.scheduler.mode = 1 # 0 for background, 1 for polling, 2 for deferrable, 3 for sporadic
RM_Scheduler.scheduler.background = true
RM_Scheduler.scheduler.budget = 1s
RM_Scheduler.aGen.sendIaTime = exponential(216.3265380859375s)
RM_Scheduler.aGen.execTime = exponential(10s)

[Config big_mode1_ia10_exec10]
RM_Scheduler.scheduler.mode = 1 # 0 for background, 1 for polling, 2 for deferrable, 3 for sporadic
RM_Scheduler.scheduler.background = true
RM_Scheduler.scheduler.budget = 1s
RM_Scheduler.aGen.sendIaTime = exponential(235.91836547851562s)
RM_Scheduler.aGen.execTime = exponential(10s)

[Config big_mode1_ia11_exec10]
RM_Scheduler.scheduler.mode = 1 # 0 for background, 1 for polling, 2 for deferrable, 3 for sporadic
RM_Scheduler.scheduler.background = true
RM_Scheduler.scheduler.budget = 1s
RM_Scheduler.aGen.sendIaTime = exponential(255.5102081298828s)
RM_Scheduler.aGen.execTime = exponential(10s)

[Config big_mode1_ia12_exec10]
RM_Scheduler.scheduler.mode = 1 # 0 for background, 1 for polling, 2 for deferrable, 3 for sporadic
RM_Scheduler.scheduler.background = true
RM_Scheduler.scheduler.budget = 1s
RM_Scheduler.aGen.sendIaTime = exponential(275.10205078125s)
RM_Scheduler.aGen.execTime = exponential(10s)

[Config big_mode1_ia13_exec10]
RM_Scheduler.scheduler.mode = 1 # 0 for background, 1 for polling, 2 for deferrable, 3 for sporadic
RM_Scheduler.scheduler.background = true
RM_Scheduler.scheduler.budget = 1s
RM_Scheduler.aGen.sendIaTime = exponential(294.6938781738281s)
RM_Scheduler.aGen.execTime = exponential(10s)

[Config big_mode1_ia14_exec10]
RM_Scheduler.scheduler.mode = 1 # 0 for background, 1 for polling, 2 for deferrable, 3 for sporadic
RM_Scheduler.scheduler.background = true
RM_Scheduler.scheduler.budget = 1s
RM_Scheduler.aGen.sendIaTime = exponential(314.28570556640625s)
RM_Scheduler.aGen.execTime = exponential(10s)

[Config big_mode1_ia15_exec10]
RM_Scheduler.scheduler.mode = 1 # 0 for background, 1 for polling, 2 for deferrable, 3 for sporadic
RM_Scheduler.scheduler.background = true
RM_Scheduler.scheduler.budget = 1s
RM_Scheduler.aGen.sendIaTime = exponential(333.8775634765625s)
RM_Scheduler.aGen.execTime = exponential(10s)

[Config big_mode1_ia16_exec10]
RM_Scheduler.scheduler.mode = 1 # 0 for background, 1 for polling, 2 for deferrable, 3 for sporadic
RM_Scheduler.scheduler.background = true
RM_Scheduler.scheduler.budget = 1s
RM_Scheduler.aGen.sendIaTime = exponential(353.4693908691406s)
RM_Scheduler.aGen.execTime = exponential(10s)

[Config big_mode1_ia17_exec10]
RM_Scheduler.scheduler.mode = 1 # 0 for background, 1 for polling, 2 for deferrable, 3 for sporadic
RM_Scheduler.scheduler.background = true
RM_Scheduler.scheduler.budget = 1s
RM_Scheduler.aGen.sendIaTime = exponential(373.06121826171875s)
RM_Scheduler.aGen.execTime = exponential(10s)

[Config big_mode1_ia18_exec10]
RM_Scheduler.scheduler.mode = 1 # 0 for background, 1 for polling, 2 for deferrable, 3 for sporadic
RM_Scheduler.scheduler.background = true
RM_Scheduler.scheduler.budget = 1s
RM_Scheduler.aGen.sendIaTime = exponential(392.653076171875s)
RM_Scheduler.aGen.execTime = exponential(10s)

[Config big_mode1_ia19_exec10]
RM_Scheduler.scheduler.mode = 1 # 0 for background, 1 for polling, 2 for deferrable, 3 for sporadic
RM_Scheduler.scheduler.background = true
RM_Scheduler.scheduler.budget = 1s
RM_Scheduler.aGen.sendIaTime = exponential(412.2449035644531s)
RM_Scheduler.aGen.execTime = exponential(10s)

[Config big_mode1_ia20_exec10]
RM_Scheduler.scheduler.mode = 1 # 0 for background, 1 for polling, 2 for deferrable, 3 for sporadic
RM_Scheduler.scheduler.background = true
RM_Scheduler.scheduler.budget = 1s
RM_Scheduler.aGen.sendIaTime = exponential(431.83673095703125s)
RM_Scheduler.aGen.execTime = exponential(10s)

[Config big_mode1_ia21_exec10]
RM_Scheduler.scheduler.mode = 1 # 0 for background, 1 for polling, 2 for deferrable, 3 for sporadic
RM_Scheduler.scheduler.background = true
RM_Scheduler.scheduler.budget = 1s
RM_Scheduler.aGen.sendIaTime = exponential(451.4285583496094s)
RM_Scheduler.aGen.execTime = exponential(10s)

[Config big_mode1_ia22_exec10]
RM_Scheduler.scheduler.mode = 1 # 0 for background, 1 for polling, 2 for deferrable, 3 for sporadic
RM_Scheduler.scheduler.background = true
RM_Scheduler.scheduler.budget = 1s
RM_Scheduler.aGen.sendIaTime = exponential(471.0204162597656s)
RM_Scheduler.aGen.execTime = exponential(10s)

[Config big_mode1_ia23_exec10]
RM_Scheduler.scheduler.mode = 1 # 0 for background, 1 for polling, 2 for deferrable, 3 for sporadic
RM_Scheduler.scheduler.background = true
RM_Scheduler.scheduler.budget = 1s
RM_Scheduler.aGen.sendIaTime = exponential(490.61224365234375s)
RM_Scheduler.aGen.execTime = exponential(10s)

[Config big_mode1_ia24_exec10]
RM_Scheduler.scheduler.mode = 1 # 0 for background, 1 for polling, 2 for deferrable, 3 for sporadic
RM_Scheduler.scheduler.background = true
RM_Scheduler.scheduler.budget = 1s
RM_Scheduler.aGen.sendIaTime = exponential(510.2040710449219s)
RM_Scheduler.aGen.execTime = exponential(10s)

[Config big_mode1_ia25_exec10]
RM_Scheduler.scheduler.mode = 1 # 0 for background, 1 for polling, 2 for deferrable, 3 for sporadic
RM_Scheduler.scheduler.background = true
RM_Scheduler.scheduler.budget = 1s
RM_Scheduler.aGen.sendIaTime = exponential(529.7958984375s)
RM_Scheduler.aGen.execTime = exponential(10s)

[Config big_mode1_ia26_exec10]
RM_Scheduler.scheduler.mode = 1 # 0 for background, 1 for polling, 2 for deferrable, 3 for sporadic
RM_Scheduler.scheduler.background = true
RM_Scheduler.scheduler.budget = 1s
RM_Scheduler.aGen.sendIaTime = exponential(549.3877563476562s)
RM_Scheduler.aGen.execTime = exponential(10s)

[Config big_mode1_ia27_exec10]
RM_Scheduler.scheduler.mode = 1 # 0 for background, 1 for polling, 2 for deferrable, 3 for sporadic
RM_Scheduler.scheduler.background = true
RM_Scheduler.scheduler.budget = 1s
RM_Scheduler.aGen.sendIaTime = exponential(568.9796142578125s)
RM_Scheduler.aGen.execTime = exponential(10s)

[Config big_mode1_ia28_exec10]
RM_Scheduler.scheduler.mode = 1 # 0 for background, 1 for polling, 2 for deferrable, 3 for sporadic
RM_Scheduler.scheduler.background = true
RM_Scheduler.scheduler.budget = 1s
RM_Scheduler.aGen.sendIaTime = exponential(588.5714111328125s)
RM_Scheduler.aGen.execTime = exponential(10s)

[Config big_mode1_ia29_exec10]
RM_Scheduler.scheduler.mode = 1 # 0 for background, 1 for polling, 2 for deferrable, 3 for sporadic
RM_Scheduler.scheduler.background = true
RM_Scheduler.scheduler.budget = 1s
RM_Scheduler.aGen.sendIaTime = exponential(608.1632690429688s)
RM_Scheduler.aGen.execTime = exponential(10s)

[Config big_mode1_ia30_exec10]
RM_Scheduler.scheduler.mode = 1 # 0 for background, 1 for polling, 2 for deferrable, 3 for sporadic
RM_Scheduler.scheduler.background = true
RM_Scheduler.scheduler.budget = 1s
RM_Scheduler.aGen.sendIaTime = exponential(627.755126953125s)
RM_Scheduler.aGen.execTime = exponential(10s)

[Config big_mode1_ia31_exec10]
RM_Scheduler.scheduler.mode = 1 # 0 for background, 1 for polling, 2 for deferrable, 3 for sporadic
RM_Scheduler.scheduler.background = true
RM_Scheduler.scheduler.budget = 1s
RM_Scheduler.aGen.sendIaTime = exponential(647.346923828125s)
RM_Scheduler.aGen.execTime = exponential(10s)

[Config big_mode1_ia32_exec10]
RM_Scheduler.scheduler.mode = 1 # 0 for background, 1 for polling, 2 for deferrable, 3 for sporadic
RM_Scheduler.scheduler.background = true
RM_Scheduler.scheduler.budget = 1s
RM_Scheduler.aGen.sendIaTime = exponential(666.9387817382812s)
RM_Scheduler.aGen.execTime = exponential(10s)

[Config big_mode1_ia33_exec10]
RM_Scheduler.scheduler.mode = 1 # 0 for background, 1 for polling, 2 for deferrable, 3 for sporadic
RM_Scheduler.scheduler.background = true
RM_Scheduler.scheduler.budget = 1s
RM_Scheduler.aGen.sendIaTime = exponential(686.5306396484375s)
RM_Scheduler.aGen.execTime = exponential(10s)

[Config big_mode1_ia34_exec10]
RM_Scheduler.scheduler.mode = 1 # 0 for background, 1 for polling, 2 for deferrable, 3 for sporadic
RM_Scheduler.scheduler.background = true
RM_Scheduler.scheduler.budget = 1s
RM_Scheduler.aGen.sendIaTime = exponential(706.1224365234375s)
RM_Scheduler.aGen.execTime = exponential(10s)

[Config big_mode1_ia35_exec10]
RM_Scheduler.scheduler.mode = 1 # 0 for background, 1 for polling, 2 for deferrable, 3 for sporadic
RM_Scheduler.scheduler.background = true
RM_Scheduler.scheduler.budget = 1s
RM_Scheduler.aGen.sendIaTime = exponential(725.7142944335938s)
RM_Scheduler.aGen.execTime = exponential(10s)

[Config big_mode1_ia36_exec10]
RM_Scheduler.scheduler.mode = 1 # 0 for background, 1 for polling, 2 for deferrable, 3 for sporadic
RM_Scheduler.scheduler.background = true
RM_Scheduler.scheduler.budget = 1s
RM_Scheduler.aGen.sendIaTime = exponential(745.30615234375s)
RM_Scheduler.aGen.execTime = exponential(10s)

[Config big_mode1_ia37_exec10]
RM_Scheduler.scheduler.mode = 1 # 0 for background, 1 for polling, 2 for deferrable, 3 for sporadic
RM_Scheduler.scheduler.background = true
RM_Scheduler.scheduler.budget = 1s
RM_Scheduler.aGen.sendIaTime = exponential(764.89794921875s)
RM_Scheduler.aGen.execTime = exponential(10s)

[Config big_mode1_ia38_exec10]
RM_Scheduler.scheduler.mode = 1 # 0 for background, 1 for polling, 2 for deferrable, 3 for sporadic
RM_Scheduler.scheduler.background = true
RM_Scheduler.scheduler.budget = 1s
RM_Scheduler.aGen.sendIaTime = exponential(784.4898071289062s)
RM_Scheduler.aGen.execTime = exponential(10s)

[Config big_mode1_ia39_exec10]
RM_Scheduler.scheduler.mode = 1 # 0 for background, 1 for polling, 2 for deferrable, 3 for sporadic
RM_Scheduler.scheduler.background = true
RM_Scheduler.scheduler.budget = 1s
RM_Scheduler.aGen.sendIaTime = exponential(804.0816040039062s)
RM_Scheduler.aGen.execTime = exponential(10s)

[Config big_mode1_ia40_exec10]
RM_Scheduler.scheduler.mode = 1 # 0 for background, 1 for polling, 2 for deferrable, 3 for sporadic
RM_Scheduler.scheduler.background = true
RM_Scheduler.scheduler.budget = 1s
RM_Scheduler.aGen.sendIaTime = exponential(823.6734619140625s)
RM_Scheduler.aGen.execTime = exponential(10s)

[Config big_mode1_ia41_exec10]
RM_Scheduler.scheduler.mode = 1 # 0 for background, 1 for polling, 2 for deferrable, 3 for sporadic
RM_Scheduler.scheduler.background = true
RM_Scheduler.scheduler.budget = 1s
RM_Scheduler.aGen.sendIaTime = exponential(843.2653198242188s)
RM_Scheduler.aGen.execTime = exponential(10s)

[Config big_mode1_ia42_exec10]
RM_Scheduler.scheduler.mode = 1 # 0 for background, 1 for polling, 2 for deferrable, 3 for sporadic
RM_Scheduler.scheduler.background = true
RM_Scheduler.scheduler.budget = 1s
RM_Scheduler.aGen.sendIaTime = exponential(862.8571166992188s)
RM_Scheduler.aGen.execTime = exponential(10s)

[Config big_mode1_ia43_exec10]
RM_Scheduler.scheduler.mode = 1 # 0 for background, 1 for polling, 2 for deferrable, 3 for sporadic
RM_Scheduler.scheduler.background = true
RM_Scheduler.scheduler.budget = 1s