[General]
network = RM_Scheduler
sim-time-limit = 100000s
#cmdenv-express-mode=true
record-eventlog = false

RM_Scheduler.pGen[0].period = 4s
RM_Scheduler.pGen[0].execTime = 1s

RM_Scheduler.pGen[1].period = 10s
RM_Scheduler.pGen[1].execTime = 2s

RM_Scheduler.pGen[0].priority = 0
RM_Scheduler.pGen[1].priority = 1
RM_Scheduler.aGen.priority = 2

[Config mode0_l0]
RM_Scheduler.scheduler.mode = 0 # 0 for background, 1 for polling, 2 for deferrable, 3 for sporadic
RM_Scheduler.scheduler.background = true
RM_Scheduler.scheduler.budget = 1s
RM_Scheduler.aGen.sendIaTime = exponential(10.000000149011612s)
RM_Scheduler.aGen.execTime = exponential(0.10000000149011612s)

[Config mode1_l1]
RM_Scheduler.scheduler.mode = 1 # 0 for background, 1 for polling, 2 for deferrable, 3 for sporadic
RM_Scheduler.scheduler.background = true
RM_Scheduler.scheduler.budget = 1s
RM_Scheduler.aGen.sendIaTime = exponential(10.000000149011612s)
RM_Scheduler.aGen.execTime = exponential(0.10000000149011612s)

[Config mode2_l2]
RM_Scheduler.scheduler.mode = 2 # 0 for background, 1 for polling, 2 for deferrable, 3 for sporadic
RM_Scheduler.scheduler.background = true
RM_Scheduler.scheduler.budget = 0.833333s
RM_Scheduler.aGen.sendIaTime = exponential(10.000000149011612s)
RM_Scheduler.aGen.execTime = exponential(0.10000000149011612s)

[Config mode3_l3]
RM_Scheduler.scheduler.mode = 3 # 0 for background, 1 for polling, 2 for deferrable, 3 for sporadic
RM_Scheduler.scheduler.background = true
RM_Scheduler.scheduler.budget = 1s
RM_Scheduler.aGen.sendIaTime = exponential(10.000000149011612s)
RM_Scheduler.aGen.execTime = exponential(0.10000000149011612s)

[Config mode0_l4]
RM_Scheduler.scheduler.mode = 0 # 0 for background, 1 for polling, 2 for deferrable, 3 for sporadic
RM_Scheduler.scheduler.background = true
RM_Scheduler.scheduler.budget = 1s
RM_Scheduler.aGen.sendIaTime = exponential(20.000000298023224s)
RM_Scheduler.aGen.execTime = exponential(0.20000000298023224s)

[Config mode1_l5]
RM_Scheduler.scheduler.mode = 1 # 0 for background, 1 for polling, 2 for deferrable, 3 for sporadic
RM_Scheduler.scheduler.background = true
RM_Scheduler.scheduler.budget = 1s
RM_Scheduler.aGen.sendIaTime = exponential(20.000000298023224s)
RM_Scheduler.aGen.execTime = exponential(0.20000000298023224s)

[Config mode2_l6]
RM_Scheduler.scheduler.mode = 2 # 0 for background, 1 for polling, 2 for deferrable, 3 for sporadic
RM_Scheduler.scheduler.background = true
RM_Scheduler.scheduler.budget = 0.833333s
RM_Scheduler.aGen.sendIaTime = exponential(20.000000298023224s)
RM_Scheduler.aGen.execTime = exponential(0.20000000298023224s)

[Config mode3_l7]
RM_Scheduler.scheduler.mode = 3 # 0 for background, 1 for polling, 2 for deferrable, 3 for sporadic
RM_Scheduler.scheduler.background = true
RM_Scheduler.scheduler.budget = 1s
RM_Scheduler.aGen.sendIaTime = exponential(20.000000298023224s)
RM_Scheduler.aGen.execTime = exponential(0.20000000298023224s)

[Config mode0_l8]
RM_Scheduler.scheduler.mode = 0 # 0 for background, 1 for polling, 2 for deferrable, 3 for sporadic
RM_Scheduler.scheduler.background = true
RM_Scheduler.scheduler.budget = 1s
RM_Scheduler.aGen.sendIaTime = exponential(30.000001192092896s)
RM_Scheduler.aGen.execTime = exponential(0.30000001192092896s)

[Config mode1_l9]
RM_Scheduler.scheduler.mode = 1 # 0 for background, 1 for polling, 2 for deferrable, 3 for sporadic
RM_Scheduler.scheduler.background = true
RM_Scheduler.scheduler.budget = 1s
RM_Scheduler.aGen.sendIaTime = exponential(30.000001192092896s)
RM_Scheduler.aGen.execTime = exponential(0.30000001192092896s)

[Config mode2_l10]
RM_Scheduler.scheduler.mode = 2 # 0 for background, 1 for polling, 2 for deferrable, 3 for sporadic
RM_Scheduler.scheduler.background = true
RM_Scheduler.scheduler.budget = 0.833333s
RM_Scheduler.aGen.sendIaTime = exponential(30.000001192092896s)
RM_Scheduler.aGen.execTime = exponential(0.30000001192092896s)

[Config mode3_l11]
RM_Scheduler.scheduler.mode = 3 # 0 for background, 1 for polling, 2 for deferrable, 3 for sporadic
RM_Scheduler.scheduler.background = true
RM_Scheduler.scheduler.budget = 1s
RM_Scheduler.aGen.sendIaTime = exponential(30.000001192092896s)
RM_Scheduler.aGen.execTime = exponential(0.30000001192092896s)

[Config mode0_l12]
RM_Scheduler.scheduler.mode = 0 # 0 for background, 1 for polling, 2 for deferrable, 3 for sporadic
RM_Scheduler.scheduler.background = true
RM_Scheduler.scheduler.budget = 1s
RM_Scheduler.aGen.sendIaTime = exponential(40.00000059604645s)
RM_Scheduler.aGen.execTime = exponential(0.4000000059604645s)

[Config mode1_l13]
RM_Scheduler.scheduler.mode = 1 # 0 for background, 1 for polling, 2 for deferrable, 3 for sporadic
RM_Scheduler.scheduler.background = true
RM_Scheduler.scheduler.budget = 1s
RM_Scheduler.aGen.sendIaTime = exponential(40.00000059604645s)
RM_Scheduler.aGen.execTime = exponential(0.4000000059604645s)

[Config mode2_l14]
RM_Scheduler.scheduler.mode = 2 # 0 for background, 1 for polling, 2 for deferrable, 3 for sporadic
RM_Scheduler.scheduler.background = true
RM_Scheduler.scheduler.budget = 0.833333s
RM_Scheduler.aGen.sendIaTime = exponential(40.00000059604645s)
RM_Scheduler.aGen.execTime = exponential(0.4000000059604645s)

[Config mode3_l15]
RM_Scheduler.scheduler.mode = 3 # 0 for background, 1 for polling, 2 for deferrable, 3 for sporadic
RM_Scheduler.scheduler.background = true
RM_Scheduler.scheduler.budget = 1s
RM_Scheduler.aGen.sendIaTime = exponential(40.00000059604645s)
RM_Scheduler.aGen.execTime = exponential(0.4000000059604645s)

[Config mode0_l16]
RM_Scheduler.scheduler.mode = 0 # 0 for background, 1 for polling, 2 for deferrable, 3 for sporadic
RM_Scheduler.scheduler.background = true
RM_Scheduler.scheduler.budget = 1s
RM_Scheduler.aGen.sendIaTime = exponential(50.0s)
RM_Scheduler.aGen.execTime = exponential(0.5s)

[Config mode1_l17]
RM_Scheduler.scheduler.mode = 1 # 0 for background, 1 for polling, 2 for deferrable, 3 for sporadic
RM_Scheduler.scheduler.background = true
RM_Scheduler.scheduler.budget = 1s
RM_Scheduler.aGen.sendIaTime = exponential(50.0s)
RM_Scheduler.aGen.execTime = exponential(0.5s)

[Config mode2_l18]
RM_Scheduler.scheduler.mode = 2 # 0 for background, 1 for polling, 2 for deferrable, 3 for sporadic
RM_Scheduler.scheduler.background = true
RM_Scheduler.scheduler.budget = 0.833333s
RM_Scheduler.aGen.sendIaTime = exponential(50.0s)
RM_Scheduler.aGen.execTime = exponential(0.5s)

[Config mode3_l19]
RM_Scheduler.scheduler.mode = 3 # 0 for background, 1 for polling, 2 for deferrable, 3 for sporadic
RM_Scheduler.scheduler.background = true
RM_Scheduler.scheduler.budget = 1s
RM_Scheduler.aGen.sendIaTime = exponential(50.0s)
RM_Scheduler.aGen.execTime = exponential(0.5s)

[Config mode0_l20]
RM_Scheduler.scheduler.mode = 0 # 0 for background, 1 for polling, 2 for deferrable, 3 for sporadic
RM_Scheduler.scheduler.background = true
RM_Scheduler.scheduler.budget = 1s
RM_Scheduler.aGen.sendIaTime = exponential(60.00000238418579s)
RM_Scheduler.aGen.execTime = exponential(0.6000000238418579s)

[Config mode1_l21]
RM_Scheduler.scheduler.mode = 1 # 0 for background, 1 for polling, 2 for deferrable, 3 for sporadic
RM_Scheduler.scheduler.background = true
RM_Scheduler.scheduler.budget = 1s
RM_Scheduler.aGen.sendIaTime = exponential(60.00000238418579s)
RM_Scheduler.aGen.execTime = exponential(0.6000000238418579s)

[Config mode2_l22]
RM_Scheduler.scheduler.mode = 2 # 0 for background, 1 for polling, 2 for deferrable, 3 for sporadic
RM_Scheduler.scheduler.background = true
RM_Scheduler.scheduler.budget = 0.833333s
RM_Scheduler.aGen.sendIaTime = exponential(60.00000238418579s)
RM_Scheduler.aGen.execTime = exponential(0.6000000238418579s)

[Config mode3_l23]
RM_Scheduler.scheduler.mode = 3 # 0 for background, 1 for polling, 2 for deferrable, 3 for sporadic
RM_Scheduler.scheduler.background = true
RM_Scheduler.scheduler.budget = 1s
RM_Scheduler.aGen.sendIaTime = exponential(60.00000238418579s)
RM_Scheduler.aGen.execTime = exponential(0.6000000238418579s)

[Config mode0_l24]
RM_Scheduler.scheduler.mode = 0 # 0 for background, 1 for polling, 2 for deferrable, 3 for sporadic
RM_Scheduler.scheduler.background = true
RM_Scheduler.scheduler.budget = 1s
RM_Scheduler.aGen.sendIaTime = exponential(69.9999988079071s)
RM_Scheduler.aGen.execTime = exponential(0.699999988079071s)

[Config mode1_l25]
RM_Scheduler.scheduler.mode = 1 # 0 for background, 1 for polling, 2 for deferrable, 3 for sporadic
RM_Scheduler.scheduler.background = true
RM_Scheduler.scheduler.budget = 1s
RM_Scheduler.aGen.sendIaTime = exponential(69.9999988079071s)
RM_Scheduler.aGen.execTime = exponential(0.699999988079071s)

[Config mode2_l26]
RM_Scheduler.scheduler.mode = 2 # 0 for background, 1 for polling, 2 for deferrable, 3 for sporadic
RM_Scheduler.scheduler.background = true
RM_Scheduler.scheduler.budget = 0.833333s
RM_Scheduler.aGen.sendIaTime = exponential(69.9999988079071s)
RM_Scheduler.aGen.execTime = exponential(0.699999988079071s)

[Config mode3_l27]
RM_Scheduler.scheduler.mode = 3 # 0 for background, 1 for polling, 2 for deferrable, 3 for sporadic
RM_Scheduler.scheduler.background = true
RM_Scheduler.scheduler.budget = 1s
RM_Scheduler.aGen.sendIaTime = exponential(69.9999988079071s)
RM_Scheduler.aGen.execTime = exponential(0.699999988079071s)

[Config mode0_l28]
RM_Scheduler.scheduler.mode = 0 # 0 for background, 1 for polling, 2 for deferrable, 3 for sporadic
RM_Scheduler.scheduler.background = true
RM_Scheduler.scheduler.budget = 1s
RM_Scheduler.aGen.sendIaTime = exponential(80.0000011920929s)
RM_Scheduler.aGen.execTime = exponential(0.800000011920929s)

[Config mode1_l29]
RM_Scheduler.scheduler.mode = 1 # 0 for background, 1 for polling, 2 for deferrable, 3 for sporadic
RM_Scheduler.scheduler.background = true
RM_Scheduler.scheduler.budget = 1s
RM_Scheduler.aGen.sendIaTime = exponential(80.0000011920929s)
RM_Scheduler.aGen.execTime = exponential(0.800000011920929s)

[Config mode2_l30]
RM_Scheduler.scheduler.mode = 2 # 0 for background, 1 for polling, 2 for deferrable, 3 for sporadic
RM_Scheduler.scheduler.background = true
RM_Scheduler.scheduler.budget = 0.833333s
RM_Scheduler.aGen.sendIaTime = exponential(80.0000011920929s)
RM_Scheduler.aGen.execTime = exponential(0.800000011920929s)

[Config mode3_l31]
RM_Scheduler.scheduler.mode = 3 # 0 for background, 1 for polling, 2 for deferrable, 3 for sporadic
RM_Scheduler.scheduler.background = true
RM_Scheduler.scheduler.budget = 1s
RM_Scheduler.aGen.sendIaTime = exponential(80.0000011920929s)
RM_Scheduler.aGen.execTime = exponential(0.800000011920929s)

[Config mode0_l32]
RM_Scheduler.scheduler.mode = 0 # 0 for background, 1 for polling, 2 for deferrable, 3 for sporadic
RM_Scheduler.scheduler.background = true
RM_Scheduler.scheduler.budget = 1s
RM_Scheduler.aGen.sendIaTime = exponential(89.99999761581421s)
RM_Scheduler.aGen.execTime = exponential(0.8999999761581421s)

[Config mode1_l33]
RM_Scheduler.scheduler.mode = 1 # 0 for background, 1 for polling, 2 for deferrable, 3 for sporadic
RM_Scheduler.scheduler.background = true
RM_Scheduler.scheduler.budget = 1s
RM_Scheduler.aGen.sendIaTime = exponential(89.99999761581421s)
RM_Scheduler.aGen.execTime = exponential(0.8999999761581421s)

[Config mode2_l34]
RM_Scheduler.scheduler.mode = 2 # 0 for background, 1 for polling, 2 for deferrable, 3 for sporadic
RM_Scheduler.scheduler.background = true
RM_Scheduler.scheduler.budget = 0.833333s
RM_Scheduler.aGen.sendIaTime = exponential(89.99999761581421s)
RM_Scheduler.aGen.execTime = exponential(0.8999999761581421s)

[Config mode3_l35]
RM_Scheduler.scheduler.mode = 3 # 0 for background, 1 for polling, 2 for deferrable, 3 for sporadic
RM_Scheduler.scheduler.background = true
RM_Scheduler.scheduler.budget = 1s
RM_Scheduler.aGen.sendIaTime = exponential(89.99999761581421s)
RM_Scheduler.aGen.execTime = exponential(0.8999999761581421s)

[Config mode0_l36]
RM_Scheduler.scheduler.mode = 0 # 0 for background, 1 for polling, 2 for deferrable, 3 for sporadic
RM_Scheduler.scheduler.background = true
RM_Scheduler.scheduler.budget = 1s
RM_Scheduler.aGen.sendIaTime = exponential(100.0s)
RM_Scheduler.aGen.execTime = exponential(1.0s)

[Config mode1_l37]
RM_Scheduler.scheduler.mode = 1 # 0 for background, 1 for polling, 2 for deferrable, 3 for sporadic
RM_Scheduler.scheduler.background = true
RM_Scheduler.scheduler.budget = 1s
RM_Scheduler.aGen.sendIaTime = exponential(100.0s)
RM_Scheduler.aGen.execTime = exponential(1.0s)

[Config mode2_l38]
RM_Scheduler.scheduler.mode = 2 # 0 for background, 1 for polling, 2 for deferrable, 3 for sporadic
RM_Scheduler.scheduler.background = true
RM_Scheduler.scheduler.budget = 0.833333s
RM_Scheduler.aGen.sendIaTime = exponential(100.0s)
RM_Scheduler.aGen.execTime = exponential(1.0s)

[Config mode3_l39]
RM_Scheduler.scheduler.mode = 3 # 0 for background, 1 for polling, 2 for deferrable, 3 for sporadic
RM_Scheduler.scheduler.background = true
RM_Scheduler.scheduler.budget = 1s
RM_Scheduler.aGen.sendIaTime = exponential(100.0s)
RM_Scheduler.aGen.execTime = exponential(1.0s)

[Config mode0_l40]
RM_Scheduler.scheduler.mode = 0 # 0 for background, 1 for polling, 2 for deferrable, 3 for sporadic
RM_Scheduler.scheduler.background = true
RM_Scheduler.scheduler.budget = 1s
RM_Scheduler.aGen.sendIaTime = exponential(110.00000238418579s)
RM_Scheduler.aGen.execTime = exponential(1.100000023841858s)

[Config mode1_l41]
RM_Scheduler.scheduler.mode = 1 # 0 for background, 1 for polling, 2 for deferrable, 3 for sporadic
RM_Scheduler.scheduler.background = true
RM_Scheduler.scheduler.budget = 1s
RM_Scheduler.aGen.sendIaTime = exponential(110.00000238418579s)
RM_Scheduler.aGen.execTime = exponential(1.100000023841858s)

[Config mode2_l42]
RM_Scheduler.scheduler.mode = 2 # 0 for background, 1 for polling, 2 for deferrable, 3 for sporadic
RM_Scheduler.scheduler.background = true
RM_Scheduler.scheduler.budget = 0.833333s
RM_Scheduler.aGen.sendIaTime = exponential(110.00000238418579s)
RM_Scheduler.aGen.execTime = exponential(1.100000023841858s)

[Config mode3_l43]
RM_Scheduler.scheduler.mode = 3 # 0 for background, 1 for polling, 2 for deferrable, 3 for sporadic
RM_Scheduler.scheduler.background = true
RM_Scheduler.scheduler.budget = 1s
RM_Scheduler.aGen.sendIaTime = exponential(110.00000238418579s)
RM_Scheduler.aGen.execTime = exponential(1.100000023841858s)

[Config mode0_l44]
RM_Scheduler.scheduler.mode = 0 # 0 for background, 1 for polling, 2 for deferrable, 3 for sporadic
RM_Scheduler.scheduler.background = true
RM_Scheduler.scheduler.budget = 1s
RM_Scheduler.aGen.sendIaTime = exponential(120.00000476837158s)
RM_Scheduler.aGen.execTime = exponential(1.2000000476837158s)

[Config mode1_l45]
RM_Scheduler.scheduler.mode = 1 # 0 for background, 1 for polling, 2 for deferrable, 3 for sporadic
RM_Scheduler.scheduler.background = true
RM_Scheduler.scheduler.budget = 1s
RM_Scheduler.aGen.sendIaTime = exponential(120.00000476837158s)
RM_Scheduler.aGen.execTime = exponential(1.2000000476837158s)

[Config mode2_l46]
RM_Scheduler.scheduler.mode = 2 # 0 for background, 1 for polling, 2 for deferrable, 3 for sporadic
RM_Scheduler.scheduler.background = true
RM_Scheduler.scheduler.budget = 0.833333s
RM_Scheduler.aGen.sendIaTime = exponential(120.00000476837158s)
RM_Scheduler.aGen.execTime = exponential(1.2000000476837158s)

[Config mode3_l47]
RM_Scheduler.scheduler.mode = 3 # 0 for background, 1 for polling, 2 for deferrable, 3 for sporadic
RM_Scheduler.scheduler.background = true
RM_Scheduler.scheduler.budget = 1s
RM_Scheduler.aGen.sendIaTime = exponential(120.00000476837158s)
RM_Scheduler.aGen.execTime = exponential(1.2000000476837158s)

[Config mode0_l48]
RM_Scheduler.scheduler.mode = 0 # 0 for background, 1 for polling, 2 for deferrable, 3 for sporadic
RM_Scheduler.scheduler.background = true
RM_Scheduler.scheduler.budget = 1s
RM_Scheduler.aGen.sendIaTime = exponential(129.99999523162842s)
RM_Scheduler.aGen.execTime = exponential(1.2999999523162842s)

[Config mode1_l49]
RM_Scheduler.scheduler.mode = 1 # 0 for background, 1 for polling, 2 for deferrable, 3 for sporadic
RM_Scheduler.scheduler.background = true
RM_Scheduler.scheduler.budget = 1s
RM_Scheduler.aGen.sendIaTime = exponential(129.99999523162842s)
RM_Scheduler.aGen.execTime = exponential(1.2999999523162842s)

[Config mode2_l50]
RM_Scheduler.scheduler.mode = 2 # 0 for background, 1 for polling, 2 for deferrable, 3 for sporadic
RM_Scheduler.scheduler.background = true
RM_Scheduler.scheduler.budget = 0.833333s
RM_Scheduler.aGen.sendIaTime = exponential(129.99999523162842s)
RM_Scheduler.aGen.execTime = exponential(1.2999999523162842s)

[Config mode3_l51]
RM_Scheduler.scheduler.mode = 3 # 0 for background, 1 for polling, 2 for deferrable, 3 for sporadic
RM_Scheduler.scheduler.background = true
RM_Scheduler.scheduler.budget = 1s
RM_Scheduler.aGen.sendIaTime = exponential(129.99999523162842s)
RM_Scheduler.aGen.execTime = exponential(1.2999999523162842s)

[Config mode0_l52]
RM_Scheduler.scheduler.mode = 0 # 0 for background, 1 for polling, 2 for deferrable, 3 for sporadic
RM_Scheduler.scheduler.background = true
RM_Scheduler.scheduler.budget = 1s
RM_Scheduler.aGen.sendIaTime = exponential(139.9999976158142s)
RM_Scheduler.aGen.execTime = exponential(1.399999976158142s)

[Config mode1_l53]
RM_Scheduler.scheduler.mode = 1 # 0 for background, 1 for polling, 2 for deferrable, 3 for sporadic
RM_Scheduler.scheduler.background = true
RM_Scheduler.scheduler.budget = 1s
RM_Scheduler.aGen.sendIaTime = exponential(139.9999976158142s)
RM_Scheduler.aGen.execTime = exponential(1.399999976158142s)

[Config mode2_l54]
RM_Scheduler.scheduler.mode = 2 # 0 for background, 1 for polling, 2 for deferrable, 3 for sporadic
RM_Scheduler.scheduler.background = true
RM_Scheduler.scheduler.budget = 0.833333s
RM_Scheduler.aGen.sendIaTime = exponential(139.9999976158142s)
RM_Scheduler.aGen.execTime = exponential(1.399999976158142s)

[Config mode3_l55]
RM_Scheduler.scheduler.mode = 3 # 0 for background, 1 for polling, 2 for deferrable, 3 for sporadic
RM_Scheduler.scheduler.background = true
RM_Scheduler.scheduler.budget = 1s
RM_Scheduler.aGen.sendIaTime = exponential(139.9999976158142s)
RM_Scheduler.aGen.execTime = exponential(1.399999976158142s)

[Config mode0_l56]
RM_Scheduler.scheduler.mode = 0 # 0 for background, 1 for polling, 2 for deferrable, 3 for sporadic
RM_Scheduler.scheduler.background = true
RM_Scheduler.scheduler.budget = 1s
RM_Scheduler.aGen.sendIaTime = exponential(150.0s)
RM_Scheduler.aGen.execTime = exponential(1.5s)

[Config mode1_l57]
RM_Scheduler.scheduler.mode = 1 # 0 for background, 1 for polling, 2 for deferrable, 3 for sporadic
RM_Scheduler.scheduler.background = true
RM_Scheduler.scheduler.budget = 1s
RM_Scheduler.aGen.sendIaTime = exponential(150.0s)
RM_Scheduler.aGen.execTime = exponential(1.5s)

[Config mode2_l58]
RM_Scheduler.scheduler.mode = 2 # 0 for background, 1 for polling, 2 for deferrable, 3 for sporadic
RM_Scheduler.scheduler.background = true
RM_Scheduler.scheduler.budget = 0.833333s
RM_Scheduler.aGen.sendIaTime = exponential(150.0s)
RM_Scheduler.aGen.execTime = exponential(1.5s)

[Config mode3_l59]
RM_Scheduler.scheduler.mode = 3 # 0 for background, 1 for polling, 2 for deferrable, 3 for sporadic
RM_Scheduler.scheduler.background = true
RM_Scheduler.scheduler.budget = 1s
RM_Scheduler.aGen.sendIaTime = exponential(150.0s)
RM_Scheduler.aGen.execTime = exponential(1.5s)

[Config mode0_l60]
RM_Scheduler.scheduler.mode = 0 # 0 for background, 1 for polling, 2 for deferrable, 3 for sporadic
RM_Scheduler.scheduler.background = true
RM_Scheduler.scheduler.budget = 1s
RM_Scheduler.aGen.sendIaTime = exponential(160.0000023841858s)
RM_Scheduler.aGen.execTime = exponential(1.600000023841858s)

[Config mode1_l61]
RM_Scheduler.scheduler.mode = 1 # 0 for background, 1 for polling, 2 for deferrable, 3 for sporadic
RM_Scheduler.scheduler.background = true
RM_Scheduler.scheduler.budget = 1s
RM_Scheduler.aGen.sendIaTime = exponential(160.0000023841858s)
RM_Scheduler.aGen.execTime = exponential(1.600000023841858s)

[Config mode2_l62]
RM_Scheduler.scheduler.mode = 2 # 0 for background, 1 for polling, 2 for deferrable, 3 for sporadic
RM_Scheduler.scheduler.background = true
RM_Scheduler.scheduler.budget = 0.833333s
RM_Scheduler.aGen.sendIaTime = exponential(160.0000023841858s)
RM_Scheduler.aGen.execTime = exponential(1.600000023841858s)

[Config mode3_l63]
RM_Scheduler.scheduler.mode = 3 # 0 for background, 1 for polling, 2 for deferrable, 3 for sporadic
RM_Scheduler.scheduler.background = true
RM_Scheduler.scheduler.budget = 1s
RM_Scheduler.aGen.sendIaTime = exponential(160.0000023841858s)
RM_Scheduler.aGen.execTime = exponential(1.600000023841858s)

[Config mode0_l64]
RM_Scheduler.scheduler.mode = 0 # 0 for background, 1 for polling, 2 for deferrable, 3 for sporadic
RM_Scheduler.scheduler.background = true
RM_Scheduler.scheduler.budget = 1s
RM_Scheduler.aGen.sendIaTime = exponential(170.00000476837158s)
RM_Scheduler.aGen.execTime = exponential(1.7000000476837158s)

[Config mode1_l65]
RM_Scheduler.scheduler.mode = 1 # 0 for background, 1 for polling, 2 for deferrable, 3 for sporadic
RM_Scheduler.scheduler.background = true
RM_Scheduler.scheduler.budget = 1s
RM_Scheduler.aGen.sendIaTime = exponential(170.00000476837158s)
RM_Scheduler.aGen.execTime = exponential(1.7000000476837158s)

[Config mode2_l66]
RM_Scheduler.scheduler.mode = 2 # 0 for background, 1 for polling, 2 for deferrable, 3 for sporadic
RM_Scheduler.scheduler.background = true
RM_Scheduler.scheduler.budget = 0.833333s
RM_Scheduler.aGen.sendIaTime = exponential(170.00000476837158s)
RM_Scheduler.aGen.execTime = exponential(1.7000000476837158s)

[Config mode3_l67]
RM_Scheduler.scheduler.mode = 3 # 0 for background, 1 for polling, 2 for deferrable, 3 for sporadic
RM_Scheduler.scheduler.background = true
RM_Scheduler.scheduler.budget = 1s
RM_Scheduler.aGen.sendIaTime = exponential(170.00000476837158s)
RM_Scheduler.aGen.execTime = exponential(1.7000000476837158s)

[Config mode0_l68]
RM_Scheduler.scheduler.mode = 0 # 0 for background, 1 for polling, 2 for deferrable, 3 for sporadic
RM_Scheduler.scheduler.background = true
RM_Scheduler.scheduler.budget = 1s
RM_Scheduler.aGen.sendIaTime = exponential(179.99999523162842s)
RM_Scheduler.aGen.execTime = exponential(1.7999999523162842s)

[Config mode1_l69]
RM_Scheduler.scheduler.mode = 1 # 0 for background, 1 for polling, 2 for deferrable, 3 for sporadic
RM_Scheduler.scheduler.background = true
RM_Scheduler.scheduler.budget = 1s
RM_Scheduler.aGen.sendIaTime = exponential(179.99999523162842s)
RM_Scheduler.aGen.execTime = exponential(1.7999999523162842s)

[Config mode2_l70]
RM_Scheduler.scheduler.mode = 2 # 0 for background, 1 for polling, 2 for deferrable, 3 for sporadic
RM_Scheduler.scheduler.background = true
RM_Scheduler.scheduler.budget = 0.833333s
RM_Scheduler.aGen.sendIaTime = exponential(179.99999523162842s)
RM_Scheduler.aGen.execTime = exponential(1.7999999523162842s)

[Config mode3_l71]
RM_Scheduler.scheduler.mode = 3 # 0 for background, 1 for polling, 2 for deferrable, 3 for sporadic
RM_Scheduler.scheduler.background = true
RM_Scheduler.scheduler.budget = 1s
RM_Scheduler.aGen.sendIaTime = exponential(179.99999523162842s)
RM_Scheduler.aGen.execTime = exponential(1.7999999523162842s)

[Config mode0_l72]
RM_Scheduler.scheduler.mode = 0 # 0 for background, 1 for polling, 2 for deferrable, 3 for sporadic
RM_Scheduler.scheduler.background = true
RM_Scheduler.scheduler.budget = 1s
RM_Scheduler.aGen.sendIaTime = exponential(189.9999976158142s)
RM_Scheduler.aGen.execTime = exponential(1.899999976158142s)

[Config mode1_l73]
RM_Scheduler.scheduler.mode = 1 # 0 for background, 1 for polling, 2 for deferrable, 3 for sporadic
RM_Scheduler.scheduler.background = true
RM_Scheduler.scheduler.budget = 1s
RM_Scheduler.aGen.sendIaTime = exponential(189.9999976158142s)
RM_Scheduler.aGen.execTime = exponential(1.899999976158142s)

[Config mode2_l74]
RM_Scheduler.scheduler.mode = 2 # 0 for background, 1 for polling, 2 for deferrable, 3 for sporadic
RM_Scheduler.scheduler.background = true
RM_Scheduler.scheduler.budget = 0.833333s
RM_Scheduler.aGen.sendIaTime = exponential(189.9999976158142s)
RM_Scheduler.aGen.execTime = exponential(1.899999976158142s)

[Config mode3_l75]
RM_Scheduler.scheduler.mode = 3 # 0 for background, 1 for polling, 2 for deferrable, 3 for sporadic
RM_Scheduler.scheduler.background = true
RM_Scheduler.scheduler.budget = 1s
RM_Scheduler.aGen.sendIaTime = exponential(189.9999976158142s)
RM_Scheduler.aGen.execTime = exponential(1.899999976158142s)

[Config mode0_l76]
RM_Scheduler.scheduler.mode = 0 # 0 for background, 1 for polling, 2 for deferrable, 3 for sporadic
RM_Scheduler.scheduler.background = true
RM_Scheduler.scheduler.budget = 1s
RM_Scheduler.aGen.sendIaTime = exponential(200.0s)
RM_Scheduler.aGen.execTime = exponential(2.0s)

[Config mode1_l77]
RM_Scheduler.scheduler.mode = 1 # 0 for background, 1 for polling, 2 for deferrable, 3 for sporadic
RM_Scheduler.scheduler.background = true
RM_Scheduler.scheduler.budget = 1s
RM_Scheduler.aGen.sendIaTime = exponential(200.0s)
RM_Scheduler.aGen.execTime = exponential(2.0s)

[Config mode2_l78]
RM_Scheduler.scheduler.mode = 2 # 0 for background, 1 for polling, 2 for deferrable, 3 for sporadic
RM_Scheduler.scheduler.background = true
RM_Scheduler.scheduler.budget = 0.833333s
RM_Scheduler.aGen.sendIaTime = exponential(200.0s)
RM_Scheduler.aGen.execTime = exponential(2.0s)

[Config mode3_l79]
RM_Scheduler.scheduler.mode = 3 # 0 for background, 1 for polling, 2 for deferrable, 3 for sporadic
RM_Scheduler.scheduler.background = true
RM_Scheduler.scheduler.budget = 1s
RM_Scheduler.aGen.sendIaTime = exponential(200.0s)
RM_Scheduler.aGen.execTime = exponential(2.0s)

[Config mode0_l80]
RM_Scheduler.scheduler.mode = 0 # 0 for background, 1 for polling, 2 for deferrable, 3 for sporadic
RM_Scheduler.scheduler.background = true
RM_Scheduler.scheduler.budget = 1s
RM_Scheduler.aGen.sendIaTime = exponential(209.99999046325684s)
RM_Scheduler.aGen.execTime = exponential(2.0999999046325684s)

[Config mode1_l81]
RM_Scheduler.scheduler.mode = 1 # 0 for background, 1 for polling, 2 for deferrable, 3 for sporadic
RM_Scheduler.scheduler.background = true
RM_Scheduler.scheduler.budget = 1s
RM_Scheduler.aGen.sendIaTime = exponential(209.99999046325684s)
RM_Scheduler.aGen.execTime = exponential(2.0999999046325684s)

[Config mode2_l82]
RM_Scheduler.scheduler.mode = 2 # 0 for background, 1 for polling, 2 for deferrable, 3 for sporadic
RM_Scheduler.scheduler.background = true
RM_Scheduler.scheduler.budget = 0.833333s
RM_Scheduler.aGen.sendIaTime = exponential(209.99999046325684s)
RM_Scheduler.aGen.execTime = exponential(2.0999999046325684s)

[Config mode3_l83]
RM_Scheduler.scheduler.mode = 3 # 0 for background, 1 for polling, 2 for deferrable, 3 for sporadic
RM_Scheduler.scheduler.background = true
RM_Scheduler.scheduler.budget = 1s
RM_Scheduler.aGen.sendIaTime = exponential(209.99999046325684s)
RM_Scheduler.aGen.execTime = exponential(2.0999999046325684s)

[Config mode0_l84]
RM_Scheduler.scheduler.mode = 0 # 0 for background, 1 for polling, 2 for deferrable, 3 for sporadic
RM_Scheduler.scheduler.background = true
RM_Scheduler.scheduler.budget = 1s
RM_Scheduler.aGen.sendIaTime = exponential(220.00000476837158s)
RM_Scheduler.aGen.execTime = exponential(2.200000047683716s)

[Config mode1_l85]
RM_Scheduler.scheduler.mode = 1 # 0 for background, 1 for polling, 2 for deferrable, 3 for sporadic
RM_Scheduler.scheduler.background = true
RM_Scheduler.scheduler.budget = 1s
RM_Scheduler.aGen.sendIaTime = exponential(220.00000476837158s)
RM_Scheduler.aGen.execTime = exponential(2.200000047683716s)

[Config mode2_l86]
RM_Scheduler.scheduler.mode = 2 # 0 for background, 1 for polling, 2 for deferrable, 3 for sporadic
RM_Scheduler.scheduler.background = true
RM_Scheduler.scheduler.budget = 0.833333s
RM_Scheduler.aGen.sendIaTime = exponential(220.00000476837158s)
RM_Scheduler.aGen.execTime = exponential(2.200000047683716s)

[Config mode3_l87]
RM_Scheduler.scheduler.mode = 3 # 0 for background, 1 for polling, 2 for deferrable, 3 for sporadic
RM_Scheduler.scheduler.background = true
RM_Scheduler.scheduler.budget = 1s
RM_Scheduler.aGen.sendIaTime = exponential(220.00000476837158s)
RM_Scheduler.aGen.execTime = exponential(2.200000047683716s)

[Config mode0_l88]
RM_Scheduler.scheduler.mode = 0 # 0 for background, 1 for polling, 2 for deferrable, 3 for sporadic
RM_Scheduler.scheduler.background = true
RM_Scheduler.scheduler.budget = 1s
RM_Scheduler.aGen.sendIaTime = exponential(229.99999523162842s)
RM_Scheduler.aGen.execTime = exponential(2.299999952316284s)

[Config mode1_l89]
RM_Scheduler.scheduler.mode = 1 # 0 for background, 1 for polling, 2 for deferrable, 3 for sporadic
RM_Scheduler.scheduler.background = true
RM_Scheduler.scheduler.budget = 1s
RM_Scheduler.aGen.sendIaTime = exponential(229.99999523162842s)
RM_Scheduler.aGen.execTime = exponential(2.299999952316284s)

[Config mode2_l90]
RM_Scheduler.scheduler.mode = 2 # 0 for background, 1 for polling, 2 for deferrable, 3 for sporadic
RM_Scheduler.scheduler.background = true
RM_Scheduler.scheduler.budget = 0.833333s
RM_Scheduler.aGen.sendIaTime = exponential(229.99999523162842s)
RM_Scheduler.aGen.execTime = exponential(2.299999952316284s)

[Config mode3_l91]
RM_Scheduler.scheduler.mode = 3 # 0 for background, 1 for polling, 2 for deferrable, 3 for sporadic
RM_Scheduler.scheduler.background = true
RM_Scheduler.scheduler.budget = 1s
RM_Scheduler.aGen.sendIaTime = exponential(229.99999523162842s)
RM_Scheduler.aGen.execTime = exponential(2.299999952316284s)

[Config mode0_l92]
RM_Scheduler.scheduler.mode = 0 # 0 for background, 1 for polling, 2 for deferrable, 3 for sporadic
RM_Scheduler.scheduler.background = true
RM_Scheduler.scheduler.budget = 1s
RM_Scheduler.aGen.sendIaTime = exponential(240.00000953674316s)
RM_Scheduler.aGen.execTime = exponential(2.4000000953674316s)

[Config mode1_l93]